Version 4
SHEET 1 1108 840
WIRE -720 -256 -720 -288
WIRE -624 -256 -720 -256
WIRE 144 -256 -624 -256
WIRE 192 -256 144 -256
WIRE 304 -256 272 -256
WIRE 384 -256 368 -256
WIRE 400 -256 384 -256
WIRE 144 -224 144 -256
WIRE -128 -176 -240 -176
WIRE 384 -144 384 -256
WIRE 416 -144 384 -144
WIRE 752 -144 608 -144
WIRE 816 -144 752 -144
WIRE 48 -128 32 -128
WIRE 144 -128 144 -160
WIRE 144 -128 112 -128
WIRE 752 -128 752 -144
WIRE -624 -96 -624 -256
WIRE -48 -48 -48 -128
WIRE 288 -48 -48 -48
WIRE 416 -48 336 -48
WIRE 640 -48 608 -48
WIRE 752 -32 752 -48
WIRE 816 -32 752 -32
WIRE -240 0 -240 -176
WIRE -160 0 -240 0
WIRE -128 0 -128 -80
WIRE -48 0 -128 0
WIRE 336 0 336 -48
WIRE 48 32 48 -128
WIRE 48 32 0 32
WIRE 64 32 48 32
WIRE -352 80 -448 80
WIRE -240 80 -240 0
WIRE -240 80 -288 80
WIRE -784 96 -880 96
WIRE -720 96 -720 -256
WIRE -720 96 -784 96
WIRE -672 96 -720 96
WIRE 144 96 144 -128
WIRE -160 112 -160 80
WIRE -320 128 -400 128
WIRE -240 128 -240 80
WIRE -240 128 -256 128
WIRE -880 144 -880 96
WIRE -784 144 -784 96
WIRE -624 144 -624 0
WIRE -560 144 -624 144
WIRE -448 144 -448 80
WIRE -448 144 -480 144
WIRE 288 160 288 -48
WIRE 416 160 288 160
WIRE 752 160 752 -32
WIRE 752 160 608 160
WIRE -448 192 -448 144
WIRE -368 192 -448 192
WIRE -208 192 -304 192
WIRE -160 192 -208 192
WIRE -48 192 -48 0
WIRE -48 192 -160 192
WIRE 0 192 0 96
WIRE 0 192 -48 192
WIRE 64 192 64 96
WIRE 64 192 0 192
WIRE 144 192 144 160
WIRE 144 192 64 192
WIRE 384 192 144 192
WIRE -400 240 -400 128
WIRE -368 240 -400 240
WIRE -208 240 -208 192
WIRE -208 240 -304 240
WIRE 336 240 336 80
WIRE 336 240 -48 240
WIRE 384 256 384 192
WIRE 416 256 384 256
WIRE 656 256 608 256
WIRE 816 256 736 256
WIRE -880 304 -880 224
WIRE -864 304 -880 304
WIRE -784 304 -784 208
WIRE -400 304 -400 240
WIRE -400 304 -784 304
WIRE -48 304 -48 240
WIRE -48 304 -400 304
WIRE 752 320 752 160
WIRE 816 320 752 320
WIRE -672 368 -672 96
WIRE -512 368 -672 368
WIRE -208 368 -384 368
WIRE -48 432 -128 432
WIRE 192 432 80 432
WIRE 752 432 752 320
WIRE 752 432 192 432
WIRE 784 432 752 432
WIRE 960 432 864 432
WIRE -128 448 -128 432
WIRE 960 496 912 496
WIRE -784 528 -784 304
WIRE -512 528 -784 528
WIRE -208 528 -384 528
WIRE 752 528 752 432
WIRE 784 528 752 528
WIRE 912 528 912 496
WIRE 912 528 864 528
WIRE 960 528 912 528
WIRE -288 544 -288 448
WIRE 16 544 16 480
WIRE 16 544 -288 544
WIRE 192 544 192 496
WIRE 192 544 16 544
WIRE 640 544 640 -48
WIRE 640 544 192 544
WIRE 640 608 640 544
WIRE 784 608 640 608
WIRE 960 608 864 608
WIRE 752 688 752 528
WIRE 784 688 752 688
WIRE 960 688 864 688
WIRE 640 768 640 608
WIRE 960 768 640 768
FLAG 400 -256 opto
IOPIN 400 -256 Out
FLAG -720 -288 in
IOPIN -720 -288 Out
FLAG 816 -144 GPIO13
IOPIN 816 -144 Out
FLAG 816 256 GPIO16
IOPIN 816 256 In
FLAG 816 -32 VCC
IOPIN 816 -32 Out
FLAG 960 768 GND
IOPIN 960 768 Out
FLAG 960 496 SW
IOPIN 960 496 Out
FLAG 816 320 ENA
IOPIN 816 320 Out
FLAG 960 432 RST
IOPIN 960 432 Out
FLAG 960 528 GPIO12
IOPIN 960 528 Out
FLAG 960 608 GPIO15
IOPIN 960 608 Out
FLAG 960 688 GPIO0
IOPIN 960 688 Out
SYMBOL cap 128 -160 M180
WINDOW 0 24 56 Left 2
WINDOW 3 24 8 Left 2
SYMATTR InstName C1
SYMATTR Value 220n
SYMATTR SpiceLine V=360 Rser=1 Lser=1
SYMBOL diode -304 224 R90
WINDOW 0 42 65 Invisible 2
WINDOW 3 15 -33 VTop 2
SYMATTR InstName D7
SYMATTR Value ""
SYMBOL res 288 -272 R90
WINDOW 0 0 56 VBottom 2
WINDOW 3 -47 43 VTop 2
SYMATTR InstName R2
SYMATTR Value 220k
SYMATTR SpiceLine tol=5 pwr=0.125
SYMBOL res 768 -32 R180
WINDOW 0 36 76 Left 2
WINDOW 3 36 40 Left 2
SYMATTR InstName R8
SYMATTR Value 4700
SYMATTR SpiceLine tol=5 pwr=0.125
SYMBOL diode 160 160 R180
WINDOW 0 31 31 Left 2
WINDOW 3 -32 3 Left 2
SYMATTR InstName D1
SYMATTR Value S1J
SYMBOL diode -304 176 R90
WINDOW 0 42 63 Invisible 2
WINDOW 3 28 -30 VTop 2
SYMATTR InstName D4
SYMATTR Value ""
SYMBOL ind -464 128 R90
WINDOW 0 5 56 VBottom 2
WINDOW 3 33 69 VTop 2
SYMATTR InstName L1
SYMATTR Value 100 µH 2 A
SYMATTR SpiceLine Ipk=2
SYMBOL ZZZ\\Lamp\\lamp -624 -48 R180
WINDOW 0 16 64 Left 2
WINDOW 3 -78 -44 Left 2
SYMATTR InstName LP1
SYMATTR Value Verbraucher
SYMBOL diode -352 64 M90
WINDOW 0 42 63 Invisible 2
WINDOW 3 28 -30 VTop 2
SYMATTR InstName D5
SYMATTR Value ""
SYMBOL diode -320 112 M90
WINDOW 0 42 63 Invisible 2
WINDOW 3 28 -30 VTop 2
SYMATTR InstName D6
SYMATTR Value ""
SYMBOL res -176 96 R0
SYMATTR InstName R10
SYMATTR Value 100k
SYMBOL diode 112 -112 M270
WINDOW 0 32 32 VTop 2
WINDOW 3 0 32 VBottom 2
SYMATTR InstName D2
SYMATTR Value S1J
SYMBOL ZZZ\\MOS\\IRF\\NMOSFET\\irf740lc -96 -128 M0
WINDOW 0 -34 -66 Left 2
WINDOW 3 13 56 Left 2
SYMATTR InstName Q1
SYMBOL res 48 -144 R90
WINDOW 0 0 56 VBottom 2
WINDOW 3 32 56 VTop 2
SYMATTR InstName R3
SYMATTR Value 10k
SYMATTR SpiceLine tol=5 pwr=0.125
SYMBOL polcap 48 32 R0
WINDOW 3 -29 54 Left 2
SYMATTR Value 47µ 25V
SYMATTR InstName C2
SYMATTR Description Capacitor
SYMATTR Type cap
SYMATTR SpiceLine V=25 Irms=170m Rser=1 Lser=0 mfg="Nichicon" pn="UPG1E470MPH" type="Al electrolytic"
SYMBOL zener 16 96 R180
WINDOW 0 0 78 Left 2
WINDOW 3 2 7 Left 2
SYMATTR InstName ZD1
SYMATTR Value 10V
SYMATTR Description Diode
SYMATTR Type diode
SYMBOL Optos\\PC817C 512 -96 R0
SYMATTR InstName U1
SYMBOL voltage -880 128 R0
WINDOW 123 0 0 Left 0
WINDOW 39 0 0 Left 0
WINDOW 0 -39 5 Left 2
WINDOW 3 -189 101 Left 2
SYMATTR InstName V2
SYMATTR Value SINE(0 230 50)
SYMBOL Optos\\PC817C 512 208 M0
SYMATTR InstName U2
SYMBOL res 320 -16 R0
SYMATTR InstName R12
SYMATTR Value 220k
SYMBOL diode 304 -240 R270
WINDOW 0 32 32 VTop 2
WINDOW 3 0 32 VBottom 2
SYMATTR InstName D3
SYMATTR Value 1N4007
SYMBOL res -176 -16 R0
SYMATTR InstName R11
SYMATTR Value 100k
SYMBOL SpecialFunctions\\varistor -768 112 R0
WINDOW 3 -69 107 Left 2
SYMATTR InstName R1
SYMATTR Value VDR 275VAC
SYMBOL Misc\\fuse2 -816 304 R0
SYMATTR InstName FS1
SYMATTR SpiceModel 2A F
SYMBOL ZZZ\\TRANSFORMer\\transformer2 -528 368 R0
SYMATTR InstName U3
SYMATTR SpiceLine L1=1H L2=66H  K=1
SYMBOL ZZZ\\bridgerectifier\\bridgerectifier -208 448 R0
WINDOW 0 80 -58 Invisible 2
SYMATTR InstName U5
SYMBOL ZZZ\\Robertugo\\reg3all_ 80 448 R0
SYMATTR InstName U4
SYMATTR Value 3.3
SYMBOL cap 176 432 R0
SYMATTR InstName C3
SYMATTR Value 100µ
SYMATTR SpiceLine V=10 Irms=0 Rser=0 Lser=0 mfg="Murata" pn="GRM31CR61A107ME05" type="X5R"
SYMBOL res 752 240 R90
WINDOW 0 0 56 VBottom 2
WINDOW 3 32 56 VTop 2
SYMATTR InstName R7
SYMATTR Value 470
SYMBOL res 880 416 R90
WINDOW 0 0 56 VBottom 2
WINDOW 3 32 56 VTop 2
SYMATTR InstName R4
SYMATTR Value 10k
SYMBOL res 880 512 R90
WINDOW 0 0 56 VBottom 2
WINDOW 3 32 56 VTop 2
SYMATTR InstName R9
SYMATTR Value 10k
SYMBOL res 880 592 R90
WINDOW 0 0 56 VBottom 2
WINDOW 3 32 56 VTop 2
SYMATTR InstName R5
SYMATTR Value 4700
SYMBOL res 880 672 R90
WINDOW 0 0 56 VBottom 2
WINDOW 3 32 56 VTop 2
SYMATTR InstName R6
SYMATTR Value 10k
TEXT 272 320 Left 2 !.tran 0 1.04 1 0.001
TEXT -464 32 Left 2 ;GL1 2A 400V
TEXT -528 600 Left 2 ;TR1 AC_DC_MYRRA IRM-03
RECTANGLE Normal -192 272 -464 48 2
RECTANGLE Normal 96 576 -528 336 2
